
OS:Version,
  {bcf3f811-f383-44a2-b5d7-46e1bf77cb38}, !- Handle
  1.14.0;                                 !- Version Identifier

OS:ClimateZones,
  {8a3ac41c-57d4-48e4-a48e-1f232e262211}, !- Handle
  ,                                       !- Active Institution
  ,                                       !- Active Year
  ASHRAE,                                 !- Climate Zone Institution Name 1
  ANSI/ASHRAE Standard 169,               !- Climate Zone Document Name 1
  2006,                                   !- Climate Zone Document Year 1
  3C,                                     !- Climate Zone Value 1
  CEC,                                    !- Climate Zone Institution Name 2
  California Climate Zone Descriptions,   !- Climate Zone Document Name 2
  1995,                                   !- Climate Zone Document Year 2
  ;                                       !- Climate Zone Value 2

OS:LifeCycleCost:Parameters,
  {1d4d0f18-e6dd-45c8-896c-f4f2a89e6ae5}, !- Handle
  FEMP,                                   !- Analysis Type
  ,                                       !- Discounting Convention
  ,                                       !- Inflation Approach
  ,                                       !- Real Discount Rate
  ,                                       !- Nominal Discount Rate
  ,                                       !- Inflation
  ,                                       !- Base Date Month
  ,                                       !- Base Date Year
  ,                                       !- Service Date Month
  ,                                       !- Service Date Year
  ,                                       !- Length of Study Period in Years
  ,                                       !- Tax Rate
  ,                                       !- Depreciation Method
  Yes;                                    !- Use NIST Fuel Escalation Rates

OS:YearDescription,
  {c1349a5a-d7e1-4ed9-8e5b-24480649c25c}, !- Handle
  ,                                       !- Calendar Year
  Sunday;                                 !- Day of Week for Start Day

OS:RadianceParameters,
  {8297fd56-36de-4b79-a182-b7636f4ae3e3}, !- Handle
  1,                                      !- Accumulated Rays per Record
  0,                                      !- Direct Threshold
  1,                                      !- Direct Certainty
  1,                                      !- Direct Jitter
  1,                                      !- Direct Pretest
  6,                                      !- Ambient Bounces VMX
  2,                                      !- Ambient Bounces DMX
  4050,                                   !- Ambient Divisions VMX
  512,                                    !- Ambient Divisions DMX
  256,                                    !- Ambient Supersamples
  0.001,                                  !- Limit Weight VMX
  0.001,                                  !- Limit Weight DMX
  500,                                    !- Klems Sampling Density
  146;                                    !- Sky Discretization Resolution

OS:SimulationControl,
  {7c57f4fc-548f-44e7-a438-1feca6a75629}; !- Handle

OS:Sizing:Parameters,
  {ee365675-827e-489e-9a24-0f596988dec4}, !- Handle
  1.25,                                   !- Heating Sizing Factor
  1.15;                                   !- Cooling Sizing Factor

OS:ProgramControl,
  {8a7b938e-cdcb-40af-82b1-79c267c36bae}; !- Handle

OS:Timestep,
  {31824a36-2f0f-4919-a534-cdb00e20d2e0}, !- Handle
  6;                                      !- Number of Timesteps per Hour

OS:OutputControl:ReportingTolerances,
  {275082a5-6cfd-4756-972e-8810ab253e29}; !- Handle

OS:ConvergenceLimits,
  {fcca1605-8471-4f2f-a485-a59582311771}; !- Handle

OS:ShadowCalculation,
  {d875de65-75c7-4d9d-883e-07bd79421b67}, !- Handle
  7,                                      !- Calculation Frequency
  15000;                                  !- Maximum Figures in Shadow Overlap Calculations

OS:SurfaceConvectionAlgorithm:Inside,
  {5add9a33-b760-4e82-a0f9-3ae0e369b9c4}, !- Handle
  Simple;                                 !- Algorithm

OS:SurfaceConvectionAlgorithm:Outside,
  {0257be16-14fc-418e-bc73-178201ccc4ec}, !- Handle
  SimpleCombined;                         !- Algorithm

OS:HeatBalanceAlgorithm,
  {5a22c4c4-a6a6-4769-b0a8-f79498f98a6d}, !- Handle
  ConductionTransferFunction,             !- Algorithm
  200;                                    !- Surface Temperature Upper Limit {C}

OS:ZoneAirHeatBalanceAlgorithm,
  {24c912f8-6f7f-4792-8ea0-a8d47b3c41a1}, !- Handle
  ThirdOrderBackwardDifference;           !- Algorithm

OS:ZoneAirContaminantBalance,
  {07e7d420-4b9b-4760-8a70-01b36aa6074f}; !- Handle

OS:ZoneCapacitanceMultiplier:ResearchSpecial,
  {91056672-db13-4057-9cb7-7ac44d24bfc5}, !- Handle
  ,                                       !- Temperature Capacity Multiplier
  ,                                       !- Humidity Capacity Multiplier
  ;                                       !- Carbon Dioxide Capacity Multiplier

OS:RunPeriod,
  {17c33f47-c9b9-463a-84bc-12596f349148}, !- Handle
  Run Period 1,                           !- Name
  1,                                      !- Begin Month
  1,                                      !- Begin Day of Month
  12,                                     !- End Month
  31,                                     !- End Day of Month
  ,                                       !- Use Weather File Holidays and Special Days
  ,                                       !- Use Weather File Daylight Saving Period
  ,                                       !- Apply Weekend Holiday Rule
  ,                                       !- Use Weather File Rain Indicators
  ,                                       !- Use Weather File Snow Indicators
  ;                                       !- Number of Times Runperiod to be Repeated

OS:Building,
  {e0ce3521-4e53-4eca-8017-2f1c8dec2b50}, !- Handle
  Building 1,                             !- Name
  ,                                       !- Building Sector Type
  ,                                       !- North Axis {deg}
  ,                                       !- Nominal Floor to Floor Height {m}
  {3ff003a9-90b9-4e63-b0fe-18128cc155d1}, !- Space Type Name
  {1b3a055b-3d65-4411-8184-8d22c17a4876}, !- Default Construction Set Name
  {88bd162d-5bf5-4354-b781-e85d4249754f}, !- Default Schedule Set Name
  ,                                       !- Standards Number of Stories
  ,                                       !- Standards Number of Above Ground Stories
  StripMall,                              !- Standards Building Type
  ,                                       !- Standards Number of Living Units
  ,                                       !- Relocatable
  ;                                       !- Nominal Floor to Ceiling Height {m}

OS:Facility,
  {b6e6be84-f909-42a5-9deb-ef70c0296721}; !- Handle

OS:Site,
  {f38b0e3c-04e1-4822-940e-9b46c436222c}, !- Handle
  Chicago Ohare Intl Ap,                  !- Name
  41.98,                                  !- Latitude {deg}
  -87.92,                                 !- Longitude {deg}
  -6,                                     !- Time Zone {hr}
  201,                                    !- Elevation {m}
  ;                                       !- Terrain

OS:SpaceType,
  {3ff003a9-90b9-4e63-b0fe-18128cc155d1}, !- Handle
  DOE Ref Pre-1980 - StMall - WholeBuilding, !- Name
  {1b3a055b-3d65-4411-8184-8d22c17a4876}, !- Default Construction Set Name
  {88bd162d-5bf5-4354-b781-e85d4249754f}, !- Default Schedule Set Name
  {fcb50ab6-2a08-4a62-9f03-be7ec1ece276}, !- Group Rendering Name
  {f0c4fe4a-2720-4e02-8365-265e3541c900}, !- Design Specification Outdoor Air Object Name
  StripMall,                              !- Standards Building Type
  WholeBuilding;                          !- Standards Space Type

OS:Rendering:Color,
  {fcb50ab6-2a08-4a62-9f03-be7ec1ece276}, !- Handle
  Rendering Color 1,                      !- Name
  171,                                    !- Rendering Red Value
  222,                                    !- Rendering Green Value
  78;                                     !- Rendering Blue Value

OS:DefaultScheduleSet,
  {88bd162d-5bf5-4354-b781-e85d4249754f}, !- Handle
  DOE Ref Pre-1980 - StMall - WholeBuilding Schedule Set, !- Name
  {38e217cc-fab8-48ac-9326-b2dc073e5ab3}, !- Hours of Operation Schedule Name
  {484649fa-dcc8-482c-8a6f-e56d13fb3f3d}, !- Number of People Schedule Name
  {bc3d1421-1182-4ce3-a835-8a94c69391ce}, !- People Activity Level Schedule Name
  {cf7164e7-e888-4cf0-9153-e9c283d08fc9}, !- Lighting Schedule Name
  {c4dbfcf4-354d-4c45-ba92-322687e2ec17}, !- Electric Equipment Schedule Name
  ,                                       !- Gas Equipment Schedule Name
  ,                                       !- Hot Water Equipment Schedule Name
  {aa863de4-73b9-4753-adfc-aa0fec632bcc}, !- Infiltration Schedule Name
  ,                                       !- Steam Equipment Schedule Name
  ;                                       !- Other Equipment Schedule Name

OS:Lights:Definition,
  {9eab1225-072b-42e8-a251-6d0a649acb91}, !- Handle
  DOE Ref Pre-1980 - StMall - WholeBuilding Lights Definition, !- Name
  Watts/Area,                             !- Design Level Calculation Method
  ,                                       !- Lighting Level {W}
  10,                                     !- Watts per Space Floor Area {W/m2}
  ;                                       !- Watts per Person {W/person}

OS:Lights,
  {531ec3f1-901e-4263-b9e9-2880f8ee320e}, !- Handle
  DOE Ref Pre-1980 - StMall - WholeBuilding Lights, !- Name
  {9eab1225-072b-42e8-a251-6d0a649acb91}, !- Lights Definition Name
  {3ff003a9-90b9-4e63-b0fe-18128cc155d1}; !- Space or SpaceType Name

OS:Schedule:Ruleset,
  {cf7164e7-e888-4cf0-9153-e9c283d08fc9}, ! Handle
  StripMall Bldg Light,                   ! Name
  {2b96d52b-0ed0-4808-b1db-6e8b6cf6286e}, ! Schedule Type Limits Name
  {c2f3e696-b65e-4df0-9052-9ab2ac525c2b}, ! Default Day Schedule Name
  {4c7c446c-8410-477c-a65e-8570c765b196}, ! Summer Design Day Schedule Name
  {dd43afa1-5928-4d16-8c4f-c4ef420549bb}; ! Winter Design Day Schedule Name

OS:ScheduleTypeLimits,
  {2b96d52b-0ed0-4808-b1db-6e8b6cf6286e}, ! Handle
  Fraction,                               ! Name
  0,                                      ! Lower Limit Value
  1,                                      ! Upper Limit Value
  CONTINUOUS;                             ! Numeric Type

OS:Schedule:Day,
  {c2f3e696-b65e-4df0-9052-9ab2ac525c2b}, ! Handle
  StripMall Bldg Light Default Schedule,  ! Name
  {2b96d52b-0ed0-4808-b1db-6e8b6cf6286e}, ! Schedule Type Limits Name
  ,                                       ! Interpolate to Timestep
  7,                                      !- Hour 1
  0,                                      !- Minute 1
  0.05,                                   !- Value Until Time 1
  8,                                      !- Hour 2
  0,                                      !- Minute 2
  0.2,                                    !- Value Until Time 2
  9,                                      !- Hour 3
  0,                                      !- Minute 3
  0.5,                                    !- Value Until Time 3
  18,                                     !- Hour 4
  0,                                      !- Minute 4
  0.9,                                    !- Value Until Time 4
  20,                                     !- Hour 5
  0,                                      !- Minute 5
  0.6,                                    !- Value Until Time 5
  21,                                     !- Hour 6
  0,                                      !- Minute 6
  0.5,                                    !- Value Until Time 6
  22,                                     !- Hour 7
  0,                                      !- Minute 7
  0.2,                                    !- Value Until Time 7
  24,                                     !- Hour 8
  0,                                      !- Minute 8
  0.05;                                   !- Value Until Time 8

OS:Schedule:Day,
  {4c7c446c-8410-477c-a65e-8570c765b196}, ! Handle
  StripMall Bldg Light Summer Design Day, ! Name
  {2b96d52b-0ed0-4808-b1db-6e8b6cf6286e}, ! Schedule Type Limits Name
  ,                                       ! Interpolate to Timestep
  24,                                     ! Hour 1
  0,                                      ! Minute 1
  1;                                      ! Value Until Time 1

OS:Schedule:Day,
  {dd43afa1-5928-4d16-8c4f-c4ef420549bb}, ! Handle
  StripMall Bldg Light Winter Design Day, ! Name
  {2b96d52b-0ed0-4808-b1db-6e8b6cf6286e}, ! Schedule Type Limits Name
  ,                                       ! Interpolate to Timestep
  24,                                     ! Hour 1
  0,                                      ! Minute 1
  0;                                      ! Value Until Time 1

OS:Schedule:Rule,
  {925206ac-07c3-4bcc-9309-3c1fc78b50fc}, ! Handle
  StripMall Bldg Light Rule 1,            ! Name
  {cf7164e7-e888-4cf0-9153-e9c283d08fc9}, ! Schedule Ruleset Name
  0,                                      ! Rule Order
  {30b2f6a3-86ba-4e60-af88-bfc6965046ca}, ! Day Schedule Name
  Yes,                                    ! Apply Sunday
  No,                                     ! Apply Monday
  No,                                     ! Apply Tuesday
  No,                                     ! Apply Wednesday
  No,                                     ! Apply Thursday
  No,                                     ! Apply Friday
  No,                                     ! Apply Saturday
  ,                                       ! Apply Holiday
  DateRange,                              ! Date Specification Type
  1,                                      ! Start Month
  1,                                      ! Start Day
  12,                                     ! End Month
  31;                                     ! End Day

OS:Schedule:Day,
  {30b2f6a3-86ba-4e60-af88-bfc6965046ca}, ! Handle
  StripMall Bldg Light Rule 1 Day Schedule, ! Name
  {2b96d52b-0ed0-4808-b1db-6e8b6cf6286e}, ! Schedule Type Limits Name
  ,                                       ! Interpolate to Timestep
  8,                                      ! Hour 1
  0,                                      ! Minute 1
  0.050000000000000003,                   ! Value Until Time 1
  10,                                     ! Hour 2
  0,                                      ! Minute 2
  0.10000000000000001,                    ! Value Until Time 2
  12,                                     ! Hour 3
  0,                                      ! Minute 3
  0.40000000000000002,                    ! Value Until Time 3
  17,                                     ! Hour 4
  0,                                      ! Minute 4
  0.59999999999999998,                    ! Value Until Time 4
  18,                                     ! Hour 5
  0,                                      ! Minute 5
  0.40000000000000002,                    ! Value Until Time 5
  19,                                     ! Hour 6
  0,                                      ! Minute 6
  0.20000000000000001,                    ! Value Until Time 6
  24,                                     ! Hour 7
  0,                                      ! Minute 7
  0.050000000000000003;                   ! Value Until Time 7

OS:Schedule:Rule,
  {6247af69-e719-4c11-9268-80c1b171864c}, ! Handle
  StripMall Bldg Light Rule 2,            ! Name
  {cf7164e7-e888-4cf0-9153-e9c283d08fc9}, ! Schedule Ruleset Name
  1,                                      ! Rule Order
  {5292629f-4009-42fb-b7c7-f225090482ce}, ! Day Schedule Name
  No,                                     ! Apply Sunday
  No,                                     ! Apply Monday
  No,                                     ! Apply Tuesday
  No,                                     ! Apply Wednesday
  No,                                     ! Apply Thursday
  No,                                     ! Apply Friday
  Yes,                                    ! Apply Saturday
  ,                                       ! Apply Holiday
  DateRange,                              ! Date Specification Type
  1,                                      ! Start Month
  1,                                      ! Start Day
  12,                                     ! End Month
  31;                                     ! End Day

OS:Schedule:Day,
  {5292629f-4009-42fb-b7c7-f225090482ce}, ! Handle
  StripMall Bldg Light Rule 2 Day Schedule, ! Name
  {2b96d52b-0ed0-4808-b1db-6e8b6cf6286e}, ! Schedule Type Limits Name
  ,                                       ! Interpolate to Timestep
  7,                                      ! Hour 1
  0,                                      ! Minute 1
  0.050000000000000003,                   ! Value Until Time 1
  8,                                      ! Hour 2
  0,                                      ! Minute 2
  0.10000000000000001,                    ! Value Until Time 2
  9,                                      ! Hour 3
  0,                                      ! Minute 3
  0.29999999999999999,                    ! Value Until Time 3
  10,                                     ! Hour 4
  0,                                      ! Minute 4
  0.59999999999999998,                    ! Value Until Time 4
  18,                                     ! Hour 5
  0,                                      ! Minute 5
  0.90000000000000002,                    ! Value Until Time 5
  19,                                     ! Hour 6
  0,                                      ! Minute 6
  0.5,                                    ! Value Until Time 6
  21,                                     ! Hour 7
  0,                                      ! Minute 7
  0.29999999999999999,                    ! Value Until Time 7
  22,                                     ! Hour 8
  0,                                      ! Minute 8
  0.10000000000000001,                    ! Value Until Time 8
  24,                                     ! Hour 9
  0,                                      ! Minute 9
  0.050000000000000003;                   ! Value Until Time 9

OS:DesignSpecification:OutdoorAir,
  {f0c4fe4a-2720-4e02-8365-265e3541c900}, !- Handle
  DOE Ref Pre-1980 - StMall - WholeBuilding Ventilation, !- Name
  Sum,                                    !- Outdoor Air Method
  ,                                       !- Outdoor Air Flow per Person {m3/s-person}
  0.001524,                               !- Outdoor Air Flow per Floor Area {m3/s-m2}
  ,                                       !- Outdoor Air Flow Rate {m3/s}
  ,                                       !- Outdoor Air Flow Air Changes per Hour {1/hr}
  ;                                       !- Outdoor Air Flow Rate Fraction Schedule Name

OS:People:Definition,
  {0e990515-cd76-47ef-a4d5-d80c355e1f6b}, !- Handle
  DOE Ref Pre-1980 - StMall - WholeBuilding People Definition, !- Name
  People/Area,                            !- Number of People Calculation Method
  ,                                       !- Number of People {people}
  0.161458656250646,                      !- People per Space Floor Area {person/m2}
  ,                                       !- Space Floor Area per Person {m2/person}
  0.3;                                    !- Fraction Radiant

OS:People,
  {de99cccf-7f18-43b3-b82b-8057aeb61008}, !- Handle
  DOE Ref Pre-1980 - StMall - WholeBuilding People, !- Name
  {0e990515-cd76-47ef-a4d5-d80c355e1f6b}, !- People Definition Name
  {3ff003a9-90b9-4e63-b0fe-18128cc155d1}; !- Space or SpaceType Name

OS:Schedule:Ruleset,
  {484649fa-dcc8-482c-8a6f-e56d13fb3f3d}, ! Handle
  StripMall Bldg Occ,                     ! Name
  {2b96d52b-0ed0-4808-b1db-6e8b6cf6286e}, ! Schedule Type Limits Name
  {d895246c-d996-4550-a84b-9724d31ffb4d}, ! Default Day Schedule Name
  {35b9f43f-6c70-4bb5-a51d-115e884ad111}, ! Summer Design Day Schedule Name
  {00822e30-dbc8-4a59-b526-1c066c18490e}; ! Winter Design Day Schedule Name

OS:Schedule:Day,
  {d895246c-d996-4550-a84b-9724d31ffb4d}, ! Handle
  StripMall Bldg Occ Default Schedule,    ! Name
  {2b96d52b-0ed0-4808-b1db-6e8b6cf6286e}, ! Schedule Type Limits Name
  ,                                       ! Interpolate to Timestep
  7,                                      !- Hour 1
  0,                                      !- Minute 1
  0,                                      !- Value Until Time 1
  8,                                      !- Hour 2
  0,                                      !- Minute 2
  0.1,                                    !- Value Until Time 2
  9,                                      !- Hour 3
  0,                                      !- Minute 3
  0.2,                                    !- Value Until Time 3
  11,                                     !- Hour 4
  0,                                      !- Minute 4
  0.5,                                    !- Value Until Time 4
  15,                                     !- Hour 5
  0,                                      !- Minute 5
  0.7,                                    !- Value Until Time 5
  16,                                     !- Hour 6
  0,                                      !- Minute 6
  0.8,                                    !- Value Until Time 6
  17,                                     !- Hour 7
  0,                                      !- Minute 7
  0.7,                                    !- Value Until Time 7
  19,                                     !- Hour 8
  0,                                      !- Minute 8
  0.5,                                    !- Value Until Time 8
  21,                                     !- Hour 9
  0,                                      !- Minute 9
  0.3,                                    !- Value Until Time 9
  24,                                     !- Hour 10
  0,                                      !- Minute 10
  0;                                      !- Value Until Time 10

OS:Schedule:Day,
  {35b9f43f-6c70-4bb5-a51d-115e884ad111}, ! Handle
  StripMall Bldg Occ Summer Design Day,   ! Name
  {2b96d52b-0ed0-4808-b1db-6e8b6cf6286e}, ! Schedule Type Limits Name
  ,                                       ! Interpolate to Timestep
  24,                                     ! Hour 1
  0,                                      ! Minute 1
  1;                                      ! Value Until Time 1

OS:Schedule:Day,
  {00822e30-dbc8-4a59-b526-1c066c18490e}, ! Handle
  StripMall Bldg Occ Winter Design Day,   ! Name
  {2b96d52b-0ed0-4808-b1db-6e8b6cf6286e}, ! Schedule Type Limits Name
  ,                                       ! Interpolate to Timestep
  24,                                     ! Hour 1
  0,                                      ! Minute 1
  1;                                      ! Value Until Time 1

OS:Schedule:Rule,
  {ddb66c74-0818-428a-968a-b3b13f7fa933}, ! Handle
  StripMall Bldg Occ Rule 1,              ! Name
  {484649fa-dcc8-482c-8a6f-e56d13fb3f3d}, ! Schedule Ruleset Name
  0,                                      ! Rule Order
  {0eadf1f0-959e-4726-a551-d4fe0a63aced}, ! Day Schedule Name
  Yes,                                    ! Apply Sunday
  No,                                     ! Apply Monday
  No,                                     ! Apply Tuesday
  No,                                     ! Apply Wednesday
  No,                                     ! Apply Thursday
  No,                                     ! Apply Friday
  No,                                     ! Apply Saturday
  ,                                       ! Apply Holiday
  DateRange,                              ! Date Specification Type
  1,                                      ! Start Month
  1,                                      ! Start Day
  12,                                     ! End Month
  31;                                     ! End Day

OS:Schedule:Day,
  {0eadf1f0-959e-4726-a551-d4fe0a63aced}, ! Handle
  StripMall Bldg Occ Rule 1 Day Schedule, ! Name
  {2b96d52b-0ed0-4808-b1db-6e8b6cf6286e}, ! Schedule Type Limits Name
  ,                                       ! Interpolate to Timestep
  9,                                      ! Hour 1
  0,                                      ! Minute 1
  0,                                      ! Value Until Time 1
  10,                                     ! Hour 2
  0,                                      ! Minute 2
  0.10000000000000001,                    ! Value Until Time 2
  12,                                     ! Hour 3
  0,                                      ! Minute 3
  0.20000000000000001,                    ! Value Until Time 3
  17,                                     ! Hour 4
  0,                                      ! Minute 4
  0.40000000000000002,                    ! Value Until Time 4
  18,                                     ! Hour 5
  0,                                      ! Minute 5
  0.20000000000000001,                    ! Value Until Time 5
  19,                                     ! Hour 6
  0,                                      ! Minute 6
  0.10000000000000001,                    ! Value Until Time 6
  24,                                     ! Hour 7
  0,                                      ! Minute 7
  0;                                      ! Value Until Time 7

OS:Schedule:Rule,
  {afe9e1ff-ab65-4ff6-b197-72b1055d688d}, ! Handle
  StripMall Bldg Occ Rule 2,              ! Name
  {484649fa-dcc8-482c-8a6f-e56d13fb3f3d}, ! Schedule Ruleset Name
  1,                                      ! Rule Order
  {ca80831f-d20d-499e-a8c2-15d1f3a7df53}, ! Day Schedule Name
  No,                                     ! Apply Sunday
  No,                                     ! Apply Monday
  No,                                     ! Apply Tuesday
  No,                                     ! Apply Wednesday
  No,                                     ! Apply Thursday
  No,                                     ! Apply Friday
  Yes,                                    ! Apply Saturday
  ,                                       ! Apply Holiday
  DateRange,                              ! Date Specification Type
  1,                                      ! Start Month
  1,                                      ! Start Day
  12,                                     ! End Month
  31;                                     ! End Day

OS:Schedule:Day,
  {ca80831f-d20d-499e-a8c2-15d1f3a7df53}, ! Handle
  StripMall Bldg Occ Rule 2 Day Schedule, ! Name
  {2b96d52b-0ed0-4808-b1db-6e8b6cf6286e}, ! Schedule Type Limits Name
  ,                                       ! Interpolate to Timestep
  7,                                      ! Hour 1
  0,                                      ! Minute 1
  0,                                      ! Value Until Time 1
  8,                                      ! Hour 2
  0,                                      ! Minute 2
  0.10000000000000001,                    ! Value Until Time 2
  9,                                      ! Hour 3
  0,                                      ! Minute 3
  0.20000000000000001,                    ! Value Until Time 3
  10,                                     ! Hour 4
  0,                                      ! Minute 4
  0.5,                                    ! Value Until Time 4
  11,                                     ! Hour 5
  0,                                      ! Minute 5
  0.59999999999999998,                    ! Value Until Time 5
  17,                                     ! Hour 6
  0,                                      ! Minute 6
  0.80000000000000004,                    ! Value Until Time 6
  18,                                     ! Hour 7
  0,                                      ! Minute 7
  0.59999999999999998,                    ! Value Until Time 7
  21,                                     ! Hour 8
  0,                                      ! Minute 8
  0.20000000000000001,                    ! Value Until Time 8
  22,                                     ! Hour 9
  0,                                      ! Minute 9
  0.10000000000000001,                    ! Value Until Time 9
  24,                                     ! Hour 10
  0,                                      ! Minute 10
  0;                                      ! Value Until Time 10

OS:Schedule:Ruleset,
  {bc3d1421-1182-4ce3-a835-8a94c69391ce}, ! Handle
  StripMall Activity,                     ! Name
  {e9dc8970-f731-44d9-8110-0a9adcd75ad0}, ! Schedule Type Limits Name
  {9dda351a-e4fa-477c-9b6a-911cc004530f}, ! Default Day Schedule Name
  {474bde90-1c37-4b06-8361-96cddf34dc97}, ! Summer Design Day Schedule Name
  {da48d089-fcee-46a5-923a-442328a6f394}; ! Winter Design Day Schedule Name

OS:ScheduleTypeLimits,
  {e9dc8970-f731-44d9-8110-0a9adcd75ad0}, !- Handle
  ActivityLevel 7,                        !- Name
  0,                                      !- Lower Limit Value
  ,                                       !- Upper Limit Value
  Continuous,                             !- Numeric Type
  ActivityLevel;                          !- Unit Type

OS:Schedule:Day,
  {9dda351a-e4fa-477c-9b6a-911cc004530f}, ! Handle
  StripMall Activity Default Schedule,    ! Name
  {e9dc8970-f731-44d9-8110-0a9adcd75ad0}, ! Schedule Type Limits Name
  ,                                       ! Interpolate to Timestep
  24,                                     !- Hour 1
  0,                                      !- Minute 1
  120;                                    !- Value Until Time 1

OS:Schedule:Day,
  {474bde90-1c37-4b06-8361-96cddf34dc97}, ! Handle
  StripMall Activity Summer Design Day,   ! Name
  {e9dc8970-f731-44d9-8110-0a9adcd75ad0}, ! Schedule Type Limits Name
  ,                                       ! Interpolate to Timestep
  24,                                     ! Hour 1
  0,                                      ! Minute 1