
OS:Version,
  {29f131d6-f237-4765-a8cc-9309b5528a00}, !- Handle
  1.14.0;                                 !- Version Identifier

OS:Rendering:Color,
  {6378dbec-eb36-48ce-bad0-f6c4e6eb1a52}, !- Handle
  Rendering Color 1,                      !- Name
  230,                                    !- Rendering Red Value
  157,                                    !- Rendering Green Value
  120;                                    !- Rendering Blue Value

OS:Schedule:Ruleset,
  {2c940045-acb3-429d-974e-30a7a792c982}, ! Handle
  Office Bldg Light,                      ! Name
  {46639c15-3d9e-445e-bf44-62058e5636d7}, ! Schedule Type Limits Name
  {f527ce9d-9816-4782-9799-67e4e81510db}, ! Default Day Schedule Name
  {1e5fadd7-0f69-4049-94f9-be070e42cd9b}, ! Summer Design Day Schedule Name
  {f1d6d84f-b3ca-4a56-9fb6-be0771a24ee7}; ! Winter Design Day Schedule Name

OS:ScheduleTypeLimits,
  {46639c15-3d9e-445e-bf44-62058e5636d7}, ! Handle
  Fraction,                               ! Name
  0,                                      ! Lower Limit Value
  1,                                      ! Upper Limit Value
  CONTINUOUS;                             ! Numeric Type

OS:Schedule:Day,
  {f527ce9d-9816-4782-9799-67e4e81510db}, ! Handle
  Office Bldg Light Default Schedule,     ! Name
  {46639c15-3d9e-445e-bf44-62058e5636d7}, ! Schedule Type Limits Name
  ,                                       ! Interpolate to Timestep
  5,                                      !- Hour 1
  0,                                      !- Minute 1
  0.05,                                   !- Value Until Time 1
  7,                                      !- Hour 2
  0,                                      !- Minute 2
  0.1,                                    !- Value Until Time 2
  8,                                      !- Hour 3
  0,                                      !- Minute 3
  0.3,                                    !- Value Until Time 3
  17,                                     !- Hour 4
  0,                                      !- Minute 4
  0.9,                                    !- Value Until Time 4
  18,                                     !- Hour 5
  0,                                      !- Minute 5
  0.7,                                    !- Value Until Time 5
  20,                                     !- Hour 6
  0,                                      !- Minute 6
  0.5,                                    !- Value Until Time 6
  22,                                     !- Hour 7
  0,                                      !- Minute 7
  0.3,                                    !- Value Until Time 7
  23,                                     !- Hour 8
  0,                                      !- Minute 8
  0.1,                                    !- Value Until Time 8
  24,                                     !- Hour 9
  0,                                      !- Minute 9
  0.05;                                   !- Value Until Time 9

OS:Schedule:Day,
  {1e5fadd7-0f69-4049-94f9-be070e42cd9b}, ! Handle
  Office Bldg Light Summer Design Day,    ! Name
  {46639c15-3d9e-445e-bf44-62058e5636d7}, ! Schedule Type Limits Name
  ,                                       ! Interpolate to Timestep
  24,                                     ! Hour 1
  0,                                      ! Minute 1
  1;                                      ! Value Until Time 1

OS:Schedule:Day,
  {f1d6d84f-b3ca-4a56-9fb6-be0771a24ee7}, ! Handle
  Office Bldg Light Winter Design Day,    ! Name
  {46639c15-3d9e-445e-bf44-62058e5636d7}, ! Schedule Type Limits Name
  ,                                       ! Interpolate to Timestep
  24,                                     ! Hour 1
  0,                                      ! Minute 1
  0;                                      ! Value Until Time 1

OS:Schedule:Rule,
  {908b277a-17ad-43e5-8ca0-e1d276873fc0}, ! Handle
  Office Bldg Light Rule 1,               ! Name
  {2c940045-acb3-429d-974e-30a7a792c982}, ! Schedule Ruleset Name
  0,                                      ! Rule Order
  {f781a329-5fd9-4e85-a1ef-b4bef14b48ef}, ! Day Schedule Name
  Yes,                                    ! Apply Sunday
  No,                                     ! Apply Monday
  No,                                     ! Apply Tuesday
  No,                                     ! Apply Wednesday
  No,                                     ! Apply Thursday
  No,                                     ! Apply Friday
  No,                                     ! Apply Saturday
  ,                                       ! Apply Holiday
  DateRange,                              ! Date Specification Type
  1,                                      ! Start Month
  1,                                      ! Start Day
  12,                                     ! End Month
  31;                                     ! End Day

OS:Schedule:Day,
  {f781a329-5fd9-4e85-a1ef-b4bef14b48ef}, ! Handle
  Office Bldg Light Rule 1 Day Schedule,  ! Name
  {46639c15-3d9e-445e-bf44-62058e5636d7}, ! Schedule Type Limits Name
  ,                                       ! Interpolate to Timestep
  24,                                     ! Hour 1
  0,                                      ! Minute 1
  0.050000000000000003;                   ! Value Until Time 1

OS:Schedule:Rule,
  {58f59580-2b1c-4b49-8761-6e97b4f06a41}, ! Handle
  Office Bldg Light Rule 2,               ! Name
  {2c940045-acb3-429d-974e-30a7a792c982}, ! Schedule Ruleset Name
  1,                                      ! Rule Order
  {d19a64b1-fd5a-4540-b6d8-57bf21de3b30}, ! Day Schedule Name
  No,                                     ! Apply Sunday
  No,                                     ! Apply Monday
  No,                                     ! Apply Tuesday
  No,                                     ! Apply Wednesday
  No,                                     ! Apply Thursday
  No,                                     ! Apply Friday
  Yes,                                    ! Apply Saturday
  ,                                       ! Apply Holiday
  DateRange,                              ! Date Specification Type
  1,                                      ! Start Month
  1,                                      ! Start Day
  12,                                     ! End Month
  31;                                     ! End Day

OS:Schedule:Day,
  {d19a64b1-fd5a-4540-b6d8-57bf21de3b30}, ! Handle
  Office Bldg Light Rule 2 Day Schedule,  ! Name
  {46639c15-3d9e-445e-bf44-62058e5636d7}, ! Schedule Type Limits Name
  ,                                       ! Interpolate to Timestep
  6,                                      ! Hour 1
  0,                                      ! Minute 1
  0.050000000000000003,                   ! Value Until Time 1
  8,                                      ! Hour 2
  0,                                      ! Minute 2
  0.10000000000000001,                    ! Value Until Time 2
  14,                                     ! Hour 3
  0,                                      ! Minute 3
  0.5,                                    ! Value Until Time 3
  17,                                     ! Hour 4
  0,                                      ! Minute 4
  0.14999999999999999,                    ! Value Until Time 4
  24,                                     ! Hour 5
  0,                                      ! Minute 5
  0.050000000000000003;                   ! Value Until Time 5

OS:DesignSpecification:OutdoorAir,
  {275b2507-2551-4c6b-9576-0694f401735c}, !- Handle
  189.1-2009 - Office - BreakRoom - CZ1-3 Ventilation, !- Name
  Sum,                                    !- Outdoor Air Method
  0.007079211648,                         !- Outdoor Air Flow per Person {m3/s-person}
  ,                                       !- Outdoor Air Flow per Floor Area {m3/s-m2}
  ,                                       !- Outdoor Air Flow Rate {m3/s}
  ,                                       !- Outdoor Air Flow Air Changes per Hour {1/hr}
  ;                                       !- Outdoor Air Flow Rate Fraction Schedule Name

OS:ScheduleTypeLimits,
  {115aba64-18e9-477b-9f56-bc49f71a3d65}, !- Handle
  ActivityLevel,                          !- Name
  0,                                      !- Lower Limit Value
  ,                                       !- Upper Limit Value
  Continuous,                             !- Numeric Type
  ActivityLevel;                          !- Unit Type

OS:ThermostatSetpoint:DualSetpoint,
  {4c10e941-222f-4ce6-97c2-167d512784bb}, !- Handle
  189.1-2009 - Office - BreakRoom - CZ1-3 Thermostat, !- Name
  ,                                       !- Heating Setpoint Temperature Schedule Name
  ;                                       !- Cooling Setpoint Temperature Schedule Name

OS:ScheduleTypeLimits,
  {fe175268-292a-4433-a896-b1196b2fabee}, !- Handle
  Temperature 36,                         !- Name
  ,                                       !- Lower Limit Value
  ,                                       !- Upper Limit Value
  Continuous,                             !- Numeric Type
  Temperature;                            !- Unit Type

OS:ScheduleTypeLimits,
  {39bcb3ad-c249-4e1e-963c-be23295372e4}, !- Handle
  Temperature 37,                         !- Name
  ,                                       !- Lower Limit Value
  ,                                       !- Upper Limit Value
  Continuous,                             !- Numeric Type
  Temperature;                            !- Unit Type

OS:Rendering:Color,
  {ba1f766f-181c-458c-9ef5-bb86302e4a6d}, !- Handle
  Rendering Color 2,                      !- Name
  120,                                    !- Rendering Red Value
  230,                                    !- Rendering Green Value
  199;                                    !- Rendering Blue Value

OS:DesignSpecification:OutdoorAir,
  {1bd42bc7-ba48-4bab-8bd8-c05a26eb63e0}, !- Handle
  189.1-2009 - Office - ClosedOffice - CZ1-3 Ventilation, !- Name
  Sum,                                    !- Outdoor Air Method
  0.009438948864,                         !- Outdoor Air Flow per Person {m3/s-person}
  ,                                       !- Outdoor Air Flow per Floor Area {m3/s-m2}
  ,                                       !- Outdoor Air Flow Rate {m3/s}
  ,                                       !- Outdoor Air Flow Air Changes per Hour {1/hr}
  ;                                       !- Outdoor Air Flow Rate Fraction Schedule Name

OS:ThermostatSetpoint:DualSetpoint,
  {9e972440-d6e2-4d12-af61-30e49f26d1f6}, !- Handle
  189.1-2009 - Office - ClosedOffice - CZ1-3 Thermostat, !- Name
  ,                                       !- Heating Setpoint Temperature Schedule Name
  ;                                       !- Cooling Setpoint Temperature Schedule Name

OS:Rendering:Color,
  {6ead6b3f-309f-49fb-902f-df18e88201ae}, !- Handle
  Rendering Color 3,                      !- Name
  230,                                    !- Rendering Red Value
  196,                                    !- Rendering Green Value
  120;                                    !- Rendering Blue Value

OS:DesignSpecification:OutdoorAir,
  {efbb3cc1-cd4b-4dc5-8eb7-eebc742afbdc}, !- Handle
  189.1-2009 - Office - Conference - CZ1-3 Ventilation, !- Name
  Sum,                                    !- Outdoor Air Method
  0.009438948864,                         !- Outdoor Air Flow per Person {m3/s-person}
  ,                                       !- Outdoor Air Flow per Floor Area {m3/s-m2}
  ,                                       !- Outdoor Air Flow Rate {m3/s}
  ,                                       !- Outdoor Air Flow Air Changes per Hour {1/hr}
  ;                                       !- Outdoor Air Flow Rate Fraction Schedule Name

OS:ThermostatSetpoint:DualSetpoint,
  {7691aa3c-0f51-4b50-af2b-5cfffd865bd1}, !- Handle
  189.1-2009 - Office - Conference - CZ1-3 Thermostat, !- Name
  ,                                       !- Heating Setpoint Temperature Schedule Name
  ;                                       !- Cooling Setpoint Temperature Schedule Name

OS:Rendering:Color,
  {f2532a3e-1ca1-4db9-998c-227431dfa48e}, !- Handle
  Rendering Color 4,                      !- Name
  169,                                    !- Rendering Red Value
  31,                                     !- Rendering Green Value
  31;                                     !- Rendering Blue Value

OS:DesignSpecification:OutdoorAir,
  {92dce51d-bb1c-4f88-86ed-bc5545e26f09}, !- Handle
  189.1-2009 - Office - Corridor - CZ1-3 Ventilation, !- Name
  Sum,                                    !- Outdoor Air Method
  ,                                       !- Outdoor Air Flow per Person {m3/s-person}
  0.000254,                               !- Outdoor Air Flow per Floor Area {m3/s-m2}
  ,                                       !- Outdoor Air Flow Rate {m3/s}
  ,                                       !- Outdoor Air Flow Air Changes per Hour {1/hr}
  ;                                       !- Outdoor Air Flow Rate Fraction Schedule Name

OS:ThermostatSetpoint:DualSetpoint,
  {f1f0200e-b39d-4793-8cb4-2c307199de15}, !- Handle
  189.1-2009 - Office - Corridor - CZ1-3 Thermostat, !- Name
  ,                                       !- Heating Setpoint Temperature Schedule Name
  ;                                       !- Cooling Setpoint Temperature Schedule Name

OS:Rendering:Color,
  {1f1f3d07-6d31-4834-9dcb-30d44551a6f6}, !- Handle
  Rendering Color 5,                      !- Name
  41,                                     !- Rendering Red Value
  31,                                     !- Rendering Green Value
  169;                                    !- Rendering Blue Value

OS:DesignSpecification:OutdoorAir,
  {890f4b3a-8ddf-43e6-aa80-3b305b723267}, !- Handle
  189.1-2009 - Office - Elec/MechRoom - CZ1-3 Ventilation, !- Name
  Sum,                                    !- Outdoor Air Method
  0.009438948864,                         !- Outdoor Air Flow per Person {m3/s-person}
  ,                                       !- Outdoor Air Flow per Floor Area {m3/s-m2}
  ,                                       !- Outdoor Air Flow Rate {m3/s}
  ,                                       !- Outdoor Air Flow Air Changes per Hour {1/hr}
  ;                                       !- Outdoor Air Flow Rate Fraction Schedule Name

OS:ThermostatSetpoint:DualSetpoint,
  {959d0b30-4f5d-43cc-a32d-27b3efb6d237}, !- Handle
  189.1-2009 - Office - Elec/MechRoom - CZ1-3 Thermostat, !- Name
  ,                                       !- Heating Setpoint Temperature Schedule Name
  ;                                       !- Cooling Setpoint Temperature Schedule Name

OS:Rendering:Color,
  {e45237c0-fb92-4607-bd04-df09fc52bb34}, !- Handle
  Rendering Color 6,                      !- Name
  41,                                     !- Rendering Red Value
  31,                                     !- Rendering Green Value
  169;                                    !- Rendering Blue Value

OS:DesignSpecification:OutdoorAir,
  {514bdf65-6520-4040-8ce1-c99180e69ac4}, !- Handle
  189.1-2009 - Office - IT_Room - CZ1-3 Ventilation, !- Name
  Sum,                                    !- Outdoor Air Method
  ,                                       !- Outdoor Air Flow per Person {m3/s-person}
  0.000254,                               !- Outdoor Air Flow per Floor Area {m3/s-m2}
  ,                                       !- Outdoor Air Flow Rate {m3/s}
  ,                                       !- Outdoor Air Flow Air Changes per Hour {1/hr}
  ;                                       !- Outdoor Air Flow Rate Fraction Schedule Name

OS:ThermostatSetpoint:DualSetpoint,
  {c45f9b47-32fa-429c-9130-e959ffd40036}, !- Handle
  189.1-2009 - Office - IT_Room - CZ1-3 Thermostat, !- Name
  ,                                       !- Heating Setpoint Temperature Schedule Name
  ;                                       !- Cooling Setpoint Temperature Schedule Name

OS:Rendering:Color,
  {f2ffe214-9259-4b2f-8e48-35543d5fba21}, !- Handle
  Rendering Color 7,                      !- Name
  230,                                    !- Rendering Red Value
  157,                                    !- Rendering Green Value
  120;                                    !- Rendering Blue Value

OS:DesignSpecification:OutdoorAir,
  {f86340de-6056-4920-a25b-2457bbcdf377}, !- Handle
  189.1-2009 - Office - Lobby - CZ1-3 Ventilation, !- Name
  Sum,                                    !- Outdoor Air Method
  0.007079211648,                         !- Outdoor Air Flow per Person {m3/s-person}
  ,                                       !- Outdoor Air Flow per Floor Area {m3/s-m2}
  ,                                       !- Outdoor Air Flow Rate {m3/s}
  ,                                       !- Outdoor Air Flow Air Changes per Hour {1/hr}
  ;                                       !- Outdoor Air Flow Rate Fraction Schedule Name

OS:ThermostatSetpoint:DualSetpoint,
  {d3694f32-dbe7-4f34-8a96-56cd4db5d3ce}, !- Handle
  189.1-2009 - Office - Lobby - CZ1-3 Thermostat, !- Name
  ,                                       !- Heating Setpoint Temperature Schedule Name
  ;                                       !- Cooling Setpoint Temperature Schedule Name

OS:Rendering:Color,
  {a2c602da-91b1-4db5-892c-de58e18075ce}, !- Handle
  Rendering Color 8,                      !- Name
  120,                                    !- Rendering Red Value
  230,                                    !- Rendering Green Value
  199;                                    !- Rendering Blue Value

OS:DesignSpecification:OutdoorAir,
  {1c52920b-7e50-4069-8337-699cc915ed7c}, !- Handle
  189.1-2009 - Office - OpenOffice - CZ1-3 Ventilation, !- Name
  Sum,                                    !- Outdoor Air Method
  0.009438948864,                         !- Outdoor Air Flow per Person {m3/s-person}
  ,                                       !- Outdoor Air Flow per Floor Area {m3/s-m2}
  ,                                       !- Outdoor Air Flow Rate {m3/s}
  ,                                       !- Outdoor Air Flow Air Changes per Hour {1/hr}
  ;                                       !- Outdoor Air Flow Rate Fraction Schedule Name

OS:ThermostatSetpoint:DualSetpoint,
  {fe91686e-dd84-4b38-b5b8-54dfcf8560ce}, !- Handle
  189.1-2009 - Office - OpenOffice - CZ1-3 Thermostat, !- Name
  ,                                       !- Heating Setpoint Temperature Schedule Name
  ;                                       !- Cooling Setpoint Temperature Schedule Name

OS:Building,
  {161a51f0-9700-4aa1-8ba8-f2513d0eecae}, !- Handle
  Building 1,                             !- Name
  ,                                       !- Building Sector Type
  ,                                       !- North Axis {deg}
  ,                                       !- Nominal Floor to Floor Height {m}
  ,                                       !- Space Type Name
  ,                                       !- Default Construction Set Name
  ,                                       !- Default Schedule Set Name
  ,                                       !- Standards Number of Stories
  ,                                       !- Standards Number of Above Ground Stories
  ,                                       !- Standards Building Type
  ,                                       !- Standards Number of Living Units
  ,                                       !- Relocatable
  ;                                       !- Nominal Floor to Ceiling Height {m}

OS:Rendering:Color,
  {15265381-e5e1-46ed-aa83-2328823b2654}, !- Handle
  Rendering Color 9,                      !- Name
  41,                                     !- Rendering Red Value
  31,                                     !- Rendering Green Value
  169;                                    !- Rendering Blue Value

OS:DesignSpecification:OutdoorAir,
  {58570dd6-8afc-4dcd-b069-b470e899067e}, !- Handle
  189.1-2009 - Office - PrintRoom - CZ1-3 Ventilation, !- Name
  Sum,                                    !- Outdoor Air Method
  ,                                       !- Outdoor Air Flow per Person {m3/s-person}
  0.000254,                               !- Outdoor Air Flow per Floor Area {m3/s-m2}
  ,                                       !- Outdoor Air Flow Rate {m3/s}
  ,                                       !- Outdoor Air Flow Air Changes per Hour {1/hr}
  ;                                       !- Outdoor Air Flow Rate Fraction Schedule Name

OS:ThermostatSetpoint:DualSetpoint,
  {6ee3f455-6c41-4bb4-b9a1-f1f1b61abb75}, !- Handle
  189.1-2009 - Office - PrintRoom - CZ1-3 Thermostat, !- Name
  ,                                       !- Heating Setpoint Temperature Schedule Name
  ;                                       !- Cooling Setpoint Temperature Schedule Name

OS:Rendering:Color,
  {dd022378-ee6c-48ca-9a39-68a7adc126bd}, !- Handle
  Rendering Color 10,                     !- Name
  169,                                    !- Rendering Red Value
  169,                                    !- Rendering Green Value
  31;                                     !- Rendering Blue Value

OS:DesignSpecification:OutdoorAir,
  {bde92cb9-71ea-4377-ba7a-5ec383b04669}, !- Handle
  189.1-2009 - Office - Restroom - CZ1-3 Ventilation, !- Name
  Sum,                                    !- Outdoor Air Method
  ,                                       !- Outdoor Air Flow per Person {m3/s-person}
  0.0048768,                              !- Outdoor Air Flow per Floor Area {m3/s-m2}
  ,                                       !- Outdoor Air Flow Rate {m3/s}
  ,                                       !- Outdoor Air Flow Air Changes per Hour {1/hr}
  ;                                       !- Outdoor Air Flow Rate Fraction Schedule Name

OS:ThermostatSetpoint:DualSetpoint,
  {5d77807c-6525-4ff5-96b0-3bae48c5bf5e}, !- Handle
  189.1-2009 - Office - Restroom - CZ1-3 Thermostat, !- Name
  ,                                       !- Heating Setpoint Temperature Schedule Name
  ;                                       !- Cooling Setpoint Temperature Schedule Name

OS:Rendering:Color,
  {a3d4d349-0de7-4e4f-ac21-f62447e12181}, !- Handle
  Rendering Color 11,                     !- Name
  230,                                    !- Rendering Red Value
  157,                                    !- Rendering Green Value
  120;                                    !- Rendering Blue Value

OS:DesignSpecification:OutdoorAir,
  {874a5fad-e186-4960-9b2a-0fba73083a6e}, !- Handle
  189.1-2009 - Office - Stair - CZ1-3 Ventilation, !- Name
  Sum,                                    !- Outdoor Air Method
  ,                                       !- Outdoor Air Flow per Person {m3/s-person}
  0.000254,                               !- Outdoor Air Flow per Floor Area {m3/s-m2}
  ,                                       !- Outdoor Air Flow Rate {m3/s}
  ,                                       !- Outdoor Air Flow Air Changes per Hour {1/hr}
  ;                                       !- Outdoor Air Flow Rate Fraction Schedule Name

OS:ThermostatSetpoint:DualSetpoint,
  {e34a4858-8ca9-4b53-8502-c5073f2911c3}, !- Handle
  189.1-2009 - Office - Stair - CZ1-3 Thermostat, !- Name
  ,                                       !- Heating Setpoint Temperature Schedule Name
  ;                                       !- Cooling Setpoint Temperature Schedule Name

OS:Rendering:Color,
  {abf602e1-5689-4887-bc4d-e6f2fc2451e4}, !- Handle
  Rendering Color 12,                     !- Name
  120,                                    !- Rendering Red Value
  149,                                    !- Rendering Green Value
  230;                                    !- Rendering Blue Value

OS:DesignSpecification:OutdoorAir,
  {4b03ea2e-ed8e-4436-b327-2f6e8ab4b5fb}, !- Handle
  189.1-2009 - Office - Storage - CZ1-3 Ventilation, !- Name
  Sum,                                    !- Outdoor Air Method
  ,                                       !- Outdoor Air Flow per Person {m3/s-person}
  0.000254,                               !- Outdoor Air Flow per Floor Area {m3/s-m2}
  ,                                       !- Outdoor Air Flow Rate {m3/s}
  ,                                       !- Outdoor Air Flow Air Changes per Hour {1/hr}
  ;                                       !- Outdoor Air Flow Rate Fraction Schedule Name

OS:ThermostatSetpoint:DualSetpoint,
  {7666b674-d1ef-4103-b26d-0c8dbbbfc8b7}, !- Handle
  189.1-2009 - Office - Storage - CZ1-3 Thermostat, !- Name
  ,                                       !- Heating Setpoint Temperature Schedule Name
  ;                                       !- Cooling Setpoint Temperature Schedule Name

OS:Rendering:Color,
  {5d8d43b8-7e07-431a-89e4-e65ffc0a4f50}, !- Handle
  Rendering Color 13,                     !- Name
  230,                                    !- Rendering Red Value
  157,                                    !- Rendering Green Value
  120;                                    !- Rendering Blue Value

OS:DesignSpecification:OutdoorAir,
  {b486263b-55be-4328-a2c1-e999b7a6be2a}, !- Handle
  189.1-2009 - Office - Vending - CZ1-3 Ventilation, !- Name
  Sum,                                    !- Outdoor Air Method
  ,                                       !- Outdoor Air Flow per Person {m3/s-person}
  0.000254,                               !- Outdoor Air Flow per Floor Area {m3/s-m2}
  ,                                       !- Outdoor Air Flow Rate {m3/s}
  ,                                       !- Outdoor Air Flow Air Changes per Hour {1/hr}
  ;                                       !- Outdoor Air Flow Rate Fraction Schedule Name

OS:ThermostatSetpoint:DualSetpoint,
  {0d80e673-9242-4a06-b05d-982eeaeca477}, !- Handle
  189.1-2009 - Office - Vending - CZ1-3 Thermostat, !- Name
  ,                                       !- Heating Setpoint Temperature Schedule Name
  ;                                       !- Cooling Setpoint Temperature Schedule Name

OS:Rendering:Color,
  {ae6193b8-9d13-45ab-a3c0-13ea1b2d2000}, !- Handle
  Rendering Color 14,                     !- Name
  120,                                    !- Rendering Red Value
  230,                                    !- Rendering Green Value
  199;                                    !- Rendering Blue Value

OS:ScheduleTypeLimits,
  {c50de33e-2a31-403b-929e-8d1c42a993ef}, !- Handle
  Fractional,                             !- Name
  0,                                      !- Lower Limit Value
  1,                                      !- Upper Limit Value
  Continuous;                             !- Numeric Type

OS:DesignSpecification:OutdoorAir,
  {b212614e-35f5-4376-9ba6-f2029aa777a8}, !- Handle
  189.1-2009 - Office - WholeBuilding - Lg Office - CZ1-3 Ventilation, !- Name
  Sum,                                    !- Outdoor Air Method
  0.009438948864,                         !- Outdoor Air Flow per Person {m3/s-person}
  ,                                       !- Outdoor Air Flow per Floor Area {m3/s-m2}
  ,                                       !- Outdoor Air Flow Rate {m3/s}
  ,                                       !- Outdoor Air Flow Air Changes per Hour {1/hr}
  ;                                       !- Outdoor Air Flow Rate Fraction Schedule Name

OS:ScheduleTypeLimits,
  {db77c810-6d42-49c7-966e-9a928067165f}, !- Handle
  ActivityLevel 5,                        !- Name
  0,                                      !- Lower Limit Value
  ,                                       !- Upper Limit Value
  Continuous,                             !- Numeric Type
  ActivityLevel;                          !- Unit Type

OS:ThermostatSetpoint:DualSetpoint,
  {2e0d8e87-f663-4cc4-95e5-e3450e3ad2f7}, !- Handle
  189.1-2009 - Office - WholeBuilding - Lg Office - CZ1-3 Thermostat, !- Name
  ,                                       !- Heating Setpoint Temperature Schedule Name
  ;                                       !- Cooling Setpoint Temperature Schedule Name

OS:ScheduleTypeLimits,
  {a9dadb87-2284-4037-ada9-d8ba03d45fc3}, !- Handle
  Temperature 3,                          !- Name
  ,                                       !- Lower Limit Value
  ,                                       !- Upper Limit Value
  Continuous,                             !- Numeric Type
  Temperature;                            !- Unit Type

OS:ScheduleTypeLimits,
  {41c7ee57-bfc4-48e2-9eb9-df0001ab88f0}, !- Handle
  Temperature 5,                          !- Name
  ,                                       !- Lower Limit Value
  ,                                       !- Upper Limit Value
  Continuous,                             !- Numeric Type
  Temperature;                            !- Unit Type

OS:Rendering:Color,
  {5975c023-a3df-4e88-aa90-8dff615de763}, !- Handle
  Rendering Color 15,                     !- Name
  120,                                    !- Rendering Red Value
  230,                                    !- Rendering Green Value
  199;                                    !- Rendering Blue Value

OS:DesignSpecification:OutdoorAir,
  {7851d678-e330-4e18-a2dc-5b9884d95f5d}, !- Handle
  189.1-2009 - Office - WholeBuilding - Md Office - CZ1-3 Ventilation, !- Name
  Sum,                                    !- Outdoor Air Method
  0.009438948864,                         !- Outdoor Air Flow per Person {m3/s-person}
  ,                                       !- Outdoor Air Flow per Floor Area {m3/s-m2}
  ,                                       !- Outdoor Air Flow Rate {m3/s}
  ,                                       !- Outdoor Air Flow Air Changes per Hour {1/hr}
  ;                                       !- Outdoor Air Flow Rate Fraction Schedule Name

OS:ScheduleTypeLimits,
  {724e0a25-cd51-4aef-b8ed-bd0074db9d88}, !- Handle
  ActivityLevel 13,                       !- Name
  0,                                      !- Lower Limit Value
  ,                                       !- Upper Limit Value
  Continuous,                             !- Numeric Type