
OS:Version,
  {6dcd23bb-7fe5-4e2b-97d9-62685a158b5f}, !- Handle
  1.14.0;                                 !- Version Identifier

OS:Schedule:Ruleset,
  {0d641b9d-e6d0-4043-8109-e654a4f7078e}, !- Handle
  Always_On,                              !- Name
  {ff79c268-b1d8-4e53-806b-13c6786658ff}, !- Schedule Type Limits Name
  {c11b6236-7196-4157-9d76-8558ddd3670e}, !- Default Day Schedule Name
  {067b85d8-b0f0-4492-b38b-f84bc15cdc8a}, !- Summer Design Day Schedule Name
  {b2d7d521-8e0a-4832-a2bc-de1abce36839}; !- Winter Design Day Schedule Name

OS:Schedule:Day,
  {c11b6236-7196-4157-9d76-8558ddd3670e}, !- Handle
  Always_On_Default,                      !- Name
  {ff79c268-b1d8-4e53-806b-13c6786658ff}, !- Schedule Type Limits Name
  ,                                       !- Interpolate to Timestep
  24,                                     !- Hour 1
  0,                                      !- Minute 1
  1;                                      !- Value Until Time 1

OS:Schedule:Day,
  {b2d7d521-8e0a-4832-a2bc-de1abce36839}, !- Handle
  Always_On_Winter_Design_Day,            !- Name
  {ff79c268-b1d8-4e53-806b-13c6786658ff}, !- Schedule Type Limits Name
  ,                                       !- Interpolate to Timestep
  24,                                     !- Hour 1
  0,                                      !- Minute 1
  1;                                      !- Value Until Time 1

OS:Schedule:Day,
  {067b85d8-b0f0-4492-b38b-f84bc15cdc8a}, !- Handle
  Always_On_Summer_Design_Day,            !- Name
  {ff79c268-b1d8-4e53-806b-13c6786658ff}, !- Schedule Type Limits Name
  ,                                       !- Interpolate to Timestep
  24,                                     !- Hour 1
  0,                                      !- Minute 1
  1;                                      !- Value Until Time 1

OS:Schedule:Ruleset,
  {688e3e86-60a4-407c-9ca4-b41058396ace}, !- Handle
  Deck_Temperature,                       !- Name
  {49638afb-ed9e-4ad1-9333-69b0b1b2e34b}, !- Schedule Type Limits Name
  {f58dd364-589b-46f4-869f-832e5ad4758b}, !- Default Day Schedule Name
  {f61a028a-2111-4da2-8266-cc1f11892eb7}, !- Summer Design Day Schedule Name
  {93b45882-1ad6-44fc-962b-e7eb669c8e5e}; !- Winter Design Day Schedule Name

OS:Schedule:Day,
  {f58dd364-589b-46f4-869f-832e5ad4758b}, !- Handle
  Deck_Temperature_Default,               !- Name
  {49638afb-ed9e-4ad1-9333-69b0b1b2e34b}, !- Schedule Type Limits Name
  ,                                       !- Interpolate to Timestep
  24,                                     !- Hour 1
  0,                                      !- Minute 1
  12.8;                                   !- Value Until Time 1

OS:Schedule:Day,
  {93b45882-1ad6-44fc-962b-e7eb669c8e5e}, !- Handle
  Deck_Temperature_Winter_Design_Day,     !- Name
  {49638afb-ed9e-4ad1-9333-69b0b1b2e34b}, !- Schedule Type Limits Name
  ,                                       !- Interpolate to Timestep
  24,                                     !- Hour 1
  0,                                      !- Minute 1
  12.8;                                   !- Value Until Time 1

OS:Schedule:Day,
  {f61a028a-2111-4da2-8266-cc1f11892eb7}, !- Handle
  Deck_Temperature_Summer_Design_Day,     !- Name
  {49638afb-ed9e-4ad1-9333-69b0b1b2e34b}, !- Schedule Type Limits Name
  ,                                       !- Interpolate to Timestep
  24,                                     !- Hour 1
  0,                                      !- Minute 1
  12.8;                                   !- Value Until Time 1

OS:Construction,
  {e27c7122-cd72-4d4f-878c-47cf9a65f312}, !- Handle
  INT-FLOOR-TOPSIDE,                      !- Name
  ,                                       !- Surface Rendering Name
  {c6509008-9a32-4568-b416-559515670883}, !- Layer 1
  {60f9055a-8ed4-4a87-9697-cc2189462f19}, !- Layer 2
  {18ee486b-5a65-49f1-b691-cb80ed5bd8ef}; !- Layer 3

OS:Material,
  {c6509008-9a32-4568-b416-559515670883}, !- Handle
  1/2IN Gypsum,                           !- Name
  Smooth,                                 !- Roughness
  0.0127,                                 !- Thickness {m}
  0.1600,                                 !- Conductivity {W/m-K}
  787.579889935478,                       !- Density {kg/m3}
  830.0000,                               !- Specific Heat {J/kg-K}
  0.9000,                                 !- Thermal Absorptance
  0.9200,                                 !- Solar Absorptance
  0.9200;                                 !- Visible Absorptance

OS:Material,
  {60f9055a-8ed4-4a87-9697-cc2189462f19}, !- Handle
  4IN CONCRETE HW,                        !- Name
  Rough,                                  !- Roughness
  0.1016,                                 !- Thickness {m}
  1.3110,                                 !- Conductivity {W/m-K}
  2229.88778461238,                       !- Density {kg/m3}
  836.8000,                               !- Specific Heat {J/kg-K}
  0.9000,                                 !- Thermal Absorptance
  0.7000,                                 !- Solar Absorptance
  0.7000;                                 !- Visible Absorptance

OS:Material:NoMass,
  {18ee486b-5a65-49f1-b691-cb80ed5bd8ef}, !- Handle
  CP02 CARPET PAD,                        !- Name
  VeryRough,                              !- Roughness
  0.2165,                                 !- Thermal Resistance {m2-K/W}
  0.9000,                                 !- Thermal Absorptance
  0.7000,                                 !- Solar Absorptance
  0.8000;                                 !- Visible Absorptance

OS:StandardsInformation:Construction,
  {13eb0d1a-55e4-40cb-b9f1-578e1739a61f}, !- Handle
  {e27c7122-cd72-4d4f-878c-47cf9a65f312}, ! Construction Name
  ,                                       ! Intended Surface Type
  Mass,                                   ! Construction Type
  0,                                      ! Perturbable Layer
  Insulation,                             ! Perturbable Layer Type
  ;                                       ! Other Perturbable Layer Type

OS:Construction,
  {19bd99d9-f06e-4f6c-99dc-6583b56db2a1}, !- Handle
  INT-FLOOR-UNDERSIDE,                    !- Name
  ,                                       !- Surface Rendering Name
  {18ee486b-5a65-49f1-b691-cb80ed5bd8ef}, !- Layer 1
  {60f9055a-8ed4-4a87-9697-cc2189462f19}, !- Layer 2
  {c6509008-9a32-4568-b416-559515670883}; !- Layer 3

OS:StandardsInformation:Construction,
  {ff4425ad-8319-4d49-a5d1-347c026bf25a}, !- Handle
  {19bd99d9-f06e-4f6c-99dc-6583b56db2a1}, ! Construction Name
  ,                                       ! Intended Surface Type
  Mass,                                   ! Construction Type
  1,                                      ! Perturbable Layer
  Insulation,                             ! Perturbable Layer Type
  ;                                       ! Other Perturbable Layer Type

OS:Construction,
  {93095dbf-f64b-46ea-8346-c19d4356f945}, !- Handle
  Standard_Int-Wall,                      !- Name
  ,                                       !- Surface Rendering Name
  {c6509008-9a32-4568-b416-559515670883}, !- Layer 1
  {c6509008-9a32-4568-b416-559515670883}; !- Layer 2

OS:StandardsInformation:Construction,
  {d4ad7630-f74c-41ed-ad9c-12990c81c91d}, !- Handle
  {93095dbf-f64b-46ea-8346-c19d4356f945}, ! Construction Name
  ,                                       ! Intended Surface Type
  Mass,                                   ! Construction Type
  0,                                      ! Perturbable Layer
  Insulation,                             ! Perturbable Layer Type
  ;                                       ! Other Perturbable Layer Type

OS:DefaultSurfaceConstructions,
  {9573a55c-54b9-470e-b731-ef2524423e80}, !- Handle
  Default Surface Constructions 1,        !- Name
  {e27c7122-cd72-4d4f-878c-47cf9a65f312}, !- Floor Construction Name
  {93095dbf-f64b-46ea-8346-c19d4356f945}, !- Wall Construction Name
  {19bd99d9-f06e-4f6c-99dc-6583b56db2a1}; !- Roof Ceiling Construction Name

OS:DefaultConstructionSet,
  {681417f6-2a1d-4693-9175-77d5af7ad127}, !- Handle
  Default Construction Set 1,             !- Name
  ,                                       !- Default Exterior Surface Constructions Name
  {9573a55c-54b9-470e-b731-ef2524423e80}, !- Default Interior Surface Constructions Name
  ,                                       !- Default Ground Contact Surface Constructions Name
  ,                                       !- Default Exterior SubSurface Constructions Name
  ,                                       !- Default Interior SubSurface Constructions Name
  ,                                       !- Interior Partition Construction Name
  ,                                       !- Space Shading Construction Name
  ,                                       !- Building Shading Construction Name
  ;                                       !- Site Shading Construction Name

OS:Schedule:Ruleset,
  {c1c2641c-e254-430f-bd25-42ccd75a5d4f}, !- Handle
  PNNL_Asset_Rating_Office_Hvac_Schedule, !- Name
  ,                                       !- Schedule Type Limits Name
  {b9b80f1e-164e-43e4-8682-b2af14a10bec}, !- Default Day Schedule Name
  {be8c3c84-eac1-4db7-a768-7ab2a0446da5}, !- Summer Design Day Schedule Name
  {e00aad96-b454-4f18-afca-d0b270644a35}; !- Winter Design Day Schedule Name

OS:Schedule:Day,
  {b9b80f1e-164e-43e4-8682-b2af14a10bec}, !- Handle
  PNNL_Asset_Rating_Office_Hvac_Schedule_Week_Day, !- Name
  ,                                       !- Schedule Type Limits Name
  ,                                       !- Interpolate to Timestep
  1,                                      !- Hour 1
  0,                                      !- Minute 1
  0,                                      !- Value Until Time 1
  2,                                      !- Hour 2
  0,                                      !- Minute 2
  0,                                      !- Value Until Time 2
  3,                                      !- Hour 3
  0,                                      !- Minute 3
  0,                                      !- Value Until Time 3
  4,                                      !- Hour 4
  0,                                      !- Minute 4
  0,                                      !- Value Until Time 4
  5,                                      !- Hour 5
  0,                                      !- Minute 5
  0,                                      !- Value Until Time 5
  6,                                      !- Hour 6
  0,                                      !- Minute 6
  1,                                      !- Value Until Time 6
  7,                                      !- Hour 7
  0,                                      !- Minute 7
  1,                                      !- Value Until Time 7
  8,                                      !- Hour 8
  0,                                      !- Minute 8
  1,                                      !- Value Until Time 8
  9,                                      !- Hour 9
  0,                                      !- Minute 9
  1,                                      !- Value Until Time 9
  10,                                     !- Hour 10
  0,                                      !- Minute 10
  1,                                      !- Value Until Time 10
  11,                                     !- Hour 11
  0,                                      !- Minute 11
  1,                                      !- Value Until Time 11
  12,                                     !- Hour 12
  0,                                      !- Minute 12
  1,                                      !- Value Until Time 12
  13,                                     !- Hour 13
  0,                                      !- Minute 13
  1,                                      !- Value Until Time 13
  14,                                     !- Hour 14
  0,                                      !- Minute 14
  1,                                      !- Value Until Time 14
  15,                                     !- Hour 15
  0,                                      !- Minute 15
  1,                                      !- Value Until Time 15
  16,                                     !- Hour 16
  0,                                      !- Minute 16
  1,                                      !- Value Until Time 16
  17,                                     !- Hour 17
  0,                                      !- Minute 17
  1,                                      !- Value Until Time 17
  18,                                     !- Hour 18
  0,                                      !- Minute 18
  1,                                      !- Value Until Time 18
  19,                                     !- Hour 19
  0,                                      !- Minute 19
  1,                                      !- Value Until Time 19
  20,                                     !- Hour 20
  0,                                      !- Minute 20
  1,                                      !- Value Until Time 20
  21,                                     !- Hour 21
  0,                                      !- Minute 21
  1,                                      !- Value Until Time 21
  22,                                     !- Hour 22
  0,                                      !- Minute 22
  1,                                      !- Value Until Time 22
  23,                                     !- Hour 23
  0,                                      !- Minute 23
  0,                                      !- Value Until Time 23
  24,                                     !- Hour 24
  0,                                      !- Minute 24
  0;                                      !- Value Until Time 24

OS:Schedule:Day,
  {be8c3c84-eac1-4db7-a768-7ab2a0446da5}, !- Handle
  PNNL_Asset_Rating_Office_Hvac_Schedule_Summer_Design_Day, !- Name
  ,                                       !- Schedule Type Limits Name
  ,                                       !- Interpolate to Timestep
  1,                                      !- Hour 1
  0,                                      !- Minute 1
  0,                                      !- Value Until Time 1
  2,                                      !- Hour 2
  0,                                      !- Minute 2
  0,                                      !- Value Until Time 2
  3,                                      !- Hour 3
  0,                                      !- Minute 3
  0,                                      !- Value Until Time 3
  4,                                      !- Hour 4
  0,                                      !- Minute 4
  0,                                      !- Value Until Time 4
  5,                                      !- Hour 5
  0,                                      !- Minute 5
  0,                                      !- Value Until Time 5
  6,                                      !- Hour 6
  0,                                      !- Minute 6
  0,                                      !- Value Until Time 6
  7,                                      !- Hour 7
  0,                                      !- Minute 7
  1,                                      !- Value Until Time 7
  8,                                      !- Hour 8
  0,                                      !- Minute 8
  1,                                      !- Value Until Time 8
  9,                                      !- Hour 9
  0,                                      !- Minute 9
  1,                                      !- Value Until Time 9
  10,                                     !- Hour 10
  0,                                      !- Minute 10
  1,                                      !- Value Until Time 10
  11,                                     !- Hour 11
  0,                                      !- Minute 11
  1,                                      !- Value Until Time 11
  12,                                     !- Hour 12
  0,                                      !- Minute 12
  1,                                      !- Value Until Time 12
  13,                                     !- Hour 13
  0,                                      !- Minute 13
  1,                                      !- Value Until Time 13
  14,                                     !- Hour 14
  0,                                      !- Minute 14
  1,                                      !- Value Until Time 14
  15,                                     !- Hour 15
  0,                                      !- Minute 15
  1,                                      !- Value Until Time 15
  16,                                     !- Hour 16
  0,                                      !- Minute 16
  1,                                      !- Value Until Time 16
  17,                                     !- Hour 17
  0,                                      !- Minute 17
  1,                                      !- Value Until Time 17
  18,                                     !- Hour 18
  0,                                      !- Minute 18
  1,                                      !- Value Until Time 18
  19,                                     !- Hour 19
  0,                                      !- Minute 19
  1,                                      !- Value Until Time 19
  20,                                     !- Hour 20
  0,                                      !- Minute 20
  1,                                      !- Value Until Time 20
  21,                                     !- Hour 21
  0,                                      !- Minute 21
  1,                                      !- Value Until Time 21
  22,                                     !- Hour 22
  0,                                      !- Minute 22
  1,                                      !- Value Until Time 22
  23,                                     !- Hour 23
  0,                                      !- Minute 23
  0,                                      !- Value Until Time 23
  24,                                     !- Hour 24
  0,                                      !- Minute 24
  0;                                      !- Value Until Time 24

OS:Schedule:Day,
  {e00aad96-b454-4f18-afca-d0b270644a35}, !- Handle
  PNNL_Asset_Rating_Office_Hvac_Schedule_Winter_Design_Day, !- Name
  ,                                       !- Schedule Type Limits Name
  ,                                       !- Interpolate to Timestep
  1,                                      !- Hour 1
  0,                                      !- Minute 1
  0,                                      !- Value Until Time 1
  2,                                      !- Hour 2
  0,                                      !- Minute 2
  0,                                      !- Value Until Time 2
  3,                                      !- Hour 3
  0,                                      !- Minute 3
  0,                                      !- Value Until Time 3
  4,                                      !- Hour 4
  0,                                      !- Minute 4
  0,                                      !- Value Until Time 4
  5,                                      !- Hour 5
  0,                                      !- Minute 5
  0,                                      !- Value Until Time 5
  6,                                      !- Hour 6
  0,                                      !- Minute 6
  0,                                      !- Value Until Time 6
  7,                                      !- Hour 7
  0,                                      !- Minute 7
  1,                                      !- Value Until Time 7
  8,                                      !- Hour 8
  0,                                      !- Minute 8
  1,                                      !- Value Until Time 8
  9,                                      !- Hour 9
  0,                                      !- Minute 9
  1,                                      !- Value Until Time 9
  10,                                     !- Hour 10
  0,                                      !- Minute 10
  1,                                      !- Value Until Time 10
  11,                                     !- Hour 11
  0,                                      !- Minute 11
  1,                                      !- Value Until Time 11
  12,                                     !- Hour 12
  0,                                      !- Minute 12
  1,                                      !- Value Until Time 12
  13,                                     !- Hour 13
  0,                                      !- Minute 13
  1,                                      !- Value Until Time 13
  14,                                     !- Hour 14
  0,                                      !- Minute 14
  1,                                      !- Value Until Time 14
  15,                                     !- Hour 15
  0,                                      !- Minute 15
  1,                                      !- Value Until Time 15
  16,                                     !- Hour 16
  0,                                      !- Minute 16
  1,                                      !- Value Until Time 16
  17,                                     !- Hour 17
  0,                                      !- Minute 17
  1,                                      !- Value Until Time 17
  18,                                     !- Hour 18
  0,                                      !- Minute 18
  1,                                      !- Value Until Time 18
  19,                                     !- Hour 19
  0,                                      !- Minute 19
  0,                                      !- Value Until Time 19
  20,                                     !- Hour 20
  0,                                      !- Minute 20
  0,                                      !- Value Until Time 20
  21,                                     !- Hour 21
  0,                                      !- Minute 21
  0,                                      !- Value Until Time 21
  22,                                     !- Hour 22
  0,                                      !- Minute 22
  0,                                      !- Value Until Time 22
  23,                                     !- Hour 23
  0,                                      !- Minute 23
  0,                                      !- Value Until Time 23
  24,                                     !- Hour 24
  0,                                      !- Minute 24
  0;                                      !- Value Until Time 24

OS:Schedule:Rule,
  {5af4e597-1c6b-4c5c-a055-e949040a0524}, !- Handle
  PNNL_Asset_Rating_Office_Hvac_Schedule_Sunday_Rule, !- Name
  {c1c2641c-e254-430f-bd25-42ccd75a5d4f}, !- Schedule Ruleset Name
  0,                                      !- Rule Order
  {9b779503-b7ce-434d-b770-4f43e80b1527}, !- Day Schedule Name
  Yes;                                    !- Apply Sunday

OS:Schedule:Day,
  {9b779503-b7ce-434d-b770-4f43e80b1527}, !- Handle
  PNNL_Asset_Rating_Office_Hvac_Schedule_Sunday, !- Name
  ,                                       !- Schedule Type Limits Name
  ,                                       !- Interpolate to Timestep
  1,                                      !- Hour 1
  0,                                      !- Minute 1
  0,                                      !- Value Until Time 1
  2,                                      !- Hour 2
  0,                                      !- Minute 2
  0,                                      !- Value Until Time 2
  3,                                      !- Hour 3
  0,                                      !- Minute 3
  0,                                      !- Value Until Time 3
  4,                                      !- Hour 4
  0,                                      !- Minute 4
  0,                                      !- Value Until Time 4
  5,                                      !- Hour 5
  0,                                      !- Minute 5
  0,                                      !- Value Until Time 5
  6,                                      !- Hour 6
  0,                                      !- Minute 6
  0,                                      !- Value Until Time 6
  7,                                      !- Hour 7
  0,                                      !- Minute 7
  0,                                      !- Value Until Time 7
  8,                                      !- Hour 8
  0,                                      !- Minute 8
  0,                                      !- Value Until Time 8
  9,                                      !- Hour 9
  0,                                      !- Minute 9
  0,                                      !- Value Until Time 9
  10,                                     !- Hour 10
  0,                                      !- Minute 10
  0,                                      !- Value Until Time 10
  11,                                     !- Hour 11
  0,                                      !- Minute 11
  0,                                      !- Value Until Time 11
  12,                                     !- Hour 12
  0,                                      !- Minute 12
  0,                                      !- Value Until Time 12
  13,                                     !- Hour 13
  0,                                      !- Minute 13
  0,                                      !- Value Until Time 13
  14,                                     !- Hour 14
  0,                                      !- Minute 14
  0,                                      !- Value Until Time 14
  15,                                     !- Hour 15
  0,                                      !- Minute 15
  0,                                      !- Value Until Time 15
  16,                                     !- Hour 16
  0,                                      !- Minute 16
  0,                                      !- Value Until Time 16
  17,                                     !- Hour 17
  0,                                      !- Minute 17
  0,                                      !- Value Until Time 17
  18,                                     !- Hour 18
  0,                                      !- Minute 18
  0,                                      !- Value Until Time 18
  19,                                     !- Hour 19
  0,                                      !- Minute 19
  0,                                      !- Value Until Time 19
  20,                                     !- Hour 20
  0,                                      !- Minute 20
  0,                                      !- Value Until Time 20
  21,                                     !- Hour 21
  0,                                      !- Minute 21
  0,                                      !- Value Until Time 21
  22,                                     !- Hour 22
  0,                                      !- Minute 22
  0,                                      !- Value Until Time 22
  23,                                     !- Hour 23
  0,                                      !- Minute 23
  0,                                      !- Value Until Time 23
  24,                                     !- Hour 24
  0,                                      !- Minute 24
  0;                                      !- Value Until Time 24

OS:Schedule:Rule,
  {86848b4a-fd50-4e61-9bcd-598fa6706fac}, !- Handle
  PNNL_Asset_Rating_Office_Hvac_Schedule_Saturday_Rule, !- Name
  {c1c2641c-e254-430f-bd25-42ccd75a5d4f}, !- Schedule Ruleset Name
  1,                                      !- Rule Order
  {8b17f4a3-8990-4bbb-8a92-9f3ecba8f009}, !- Day Schedule Name
  ,                                       !- Apply Sunday
  ,                                       !- Apply Monday
  ,                                       !- Apply Tuesday
  ,                                       !- Apply Wednesday
  ,                                       !- Apply Thursday
  ,                                       !- Apply Friday
  Yes;                                    !- Apply Saturday

OS:Schedule:Day,
  {8b17f4a3-8990-4bbb-8a92-9f3ecba8f009}, !- Handle
  PNNL_Asset_Rating_Office_Hvac_Schedule_Saturday, !- Name
  ,                                       !- Schedule Type Limits Name
  ,                                       !- Interpolate to Timestep
  1,                                      !- Hour 1
  0,                                      !- Minute 1
  0,                                      !- Value Until Time 1
  2,                                      !- Hour 2
  0,                                      !- Minute 2
  0,                                      !- Value Until Time 2
  3,                                      !- Hour 3
  0,                                      !- Minute 3
  0,                                      !- Value Until Time 3
  4,                                      !- Hour 4
  0,                                      !- Minute 4
  0,                                      !- Value Until Time 4
  5,                                      !- Hour 5
  0,                                      !- Minute 5
  0,                                      !- Value Until Time 5
  6,                                      !- Hour 6
  0,                                      !- Minute 6
  1,                                      !- Value Until Time 6
  7,                                      !- Hour 7
  0,                                      !- Minute 7
  1,                                      !- Value Until Time 7
  8,                                      !- Hour 8
  0,                                      !- Minute 8
  1,                                      !- Value Until Time 8
  9,                                      !- Hour 9
  0,                                      !- Minute 9
  1,                                      !- Value Until Time 9
  10,                                     !- Hour 10
  0,                                      !- Minute 10